Version 4
SHEET 1 900 680
WIRE 48 32 -160 32
WIRE 208 32 128 32
WIRE 288 32 208 32
WIRE 400 32 352 32
WIRE 512 32 400 32
WIRE 208 80 208 32
WIRE -160 112 -160 32
WIRE 512 128 512 32
WIRE 400 144 400 32
WIRE 32 160 -16 160
WIRE 128 160 112 160
WIRE 160 160 128 160
WIRE -16 192 -16 160
WIRE -160 272 -160 192
WIRE -16 272 -160 272
WIRE 208 272 208 176
WIRE 208 272 -16 272
WIRE 352 272 208 272
WIRE 400 272 400 208
WIRE 400 272 352 272
WIRE 512 272 512 208
WIRE 512 272 400 272
WIRE 336 288 352 272
FLAG 336 288 0
FLAG 400 32 VOUT
FLAG -160 32 VIN
FLAG 128 160 GATE
SYMBOL nmos 160 80 R0
SYMATTR InstName M1
SYMATTR Value FDS5690
SYMBOL ind 32 48 R270
WINDOW 0 32 56 VTop 2
WINDOW 3 5 56 VBottom 2
SYMATTR InstName L1
SYMATTR Value 3.3µH
SYMATTR SpiceLine Ipk=3.6 Rser=0.0399 Rpar=15.543 Cpar=1.13548e-11
SYMBOL schottky 288 48 R270
WINDOW 0 32 32 VTop 2
WINDOW 3 0 32 VBottom 2
SYMATTR InstName D1
SYMATTR Value SS24
SYMATTR Description Diode
SYMATTR Type diode
SYMBOL cap 384 144 R0
SYMATTR InstName C1
SYMATTR Value 20µF
SYMATTR SpiceLine V=25 Irms=15 Rser=0.03 Lser=0.001 Rpar=0.03 Cpar=0.001
SYMBOL res 128 144 R90
WINDOW 0 0 56 VBottom 2
WINDOW 3 32 56 VTop 2
SYMATTR InstName R1
SYMATTR Value 5
SYMATTR SpiceLine tol=1 pwr=1
SYMBOL voltage -160 96 R0
WINDOW 123 0 0 Left 2
WINDOW 39 24 124 Left 2
SYMATTR InstName V1
SYMATTR Value 4.2
SYMATTR SpiceLine Rser=0.01
SYMBOL voltage -16 176 R0
WINDOW 3 24 96 Invisible 2
WINDOW 123 0 0 Left 2
WINDOW 39 0 0 Left 2
SYMATTR InstName V2
SYMATTR Value PULSE(0 5 0 0 0 9.791e-7 0.0000013888 50000)
SYMBOL res 496 112 R0
SYMATTR InstName R2
SYMATTR Value 55
SYMATTR SpiceLine tol=1 pwr=0.1
TEXT -194 312 Left 2 !.tran 0 0.00201 0.002000
