Version 4
SHEET 1 900 680
WIRE 48 -64 -256 -64
WIRE 208 -64 128 -64
WIRE 288 -64 208 -64
WIRE 400 -64 352 -64
WIRE 512 -64 400 -64
WIRE 208 80 208 -64
WIRE -256 112 -256 -64
WIRE 512 128 512 -64
WIRE 592 128 512 128
WIRE 128 160 -32 160
WIRE 160 160 128 160
WIRE 592 208 592 192
WIRE 592 208 512 208
WIRE -256 272 -256 192
WIRE -32 272 -32 240
WIRE -32 272 -256 272
WIRE 208 272 208 176
WIRE 208 272 -32 272
WIRE 352 272 208 272
WIRE 512 272 512 208
WIRE 512 272 352 272
WIRE 336 288 352 272
FLAG 336 288 0
FLAG 400 -64 VOUT
FLAG -256 -64 VIN
FLAG 128 160 GATE
SYMBOL nmos 160 80 R0
SYMATTR InstName M1
SYMATTR Value FDS5690
SYMBOL ind 32 -48 R270
WINDOW 0 32 56 VTop 2
WINDOW 3 5 56 VBottom 2
SYMATTR InstName L1
SYMATTR Value 3.3µ
SYMATTR SpiceLine Ipk=3.7 Rser=0.042 Rpar=15188 Cpar=3.369p mfg="Würth Elektronik" pn="784774033 WE-PD2A 5848"
SYMBOL schottky 288 -48 R270
WINDOW 0 32 32 VTop 2
WINDOW 3 0 32 VBottom 2
SYMATTR InstName D1
SYMATTR Value SS24
SYMATTR Description Diode
SYMATTR Type diode
SYMBOL voltage -256 96 R0
WINDOW 123 0 0 Left 2
WINDOW 39 24 124 Left 2
SYMATTR SpiceLine Rser=0
SYMATTR InstName V1
SYMATTR Value 4.2
SYMBOL res 496 112 R0
SYMATTR InstName R2
SYMATTR Value 55
SYMATTR SpiceLine tol=1 pwr=0.1
SYMBOL cap 576 128 R0
SYMATTR InstName C1
SYMATTR Value 10µ
SYMATTR SpiceLine V=25 Irms=0 Rser=0.001 Lser=0 mfg="TDK" pn="C575OX7RIE106M" type="X7R"
SYMBOL voltage -32 144 R0
WINDOW 123 0 0 Left 2
WINDOW 39 0 0 Left 2
SYMATTR InstName V2
SYMATTR Value PULSE(0 5 0 0 0 {0.72/freq} {1/freq})
TEXT -192 312 Left 2 !.tran 0 0.001 0
TEXT -192 336 Left 2 !.param freq=750k
